<?xml version="1.0" encoding="UTF-8"?>

<!-- generated on 2021-09-23 03:08:27 by Eclipse SUMO netedit Version 1.10.0
<configuration xmlns:xsi="http://www.w3.org/2001/XMLSchema-instance" xsi:noNamespaceSchemaLocation="http://sumo.dlr.de/xsd/netconvertConfiguration.xsd">

    <input>
        <sumo-net-file value="D:\Learn\4-1\Project\Dev\Sumo\test_tls\map.net.xml"/>
    </input>

    <output>
        <output-file value="D:\Learn\4-1\Project\Dev\Sumo\test_tls\map.net.xml"/>
    </output>

    <processing>
        <geometry.min-radius.fix.railways value="false"/>
        <geometry.max-grade.fix value="false"/>
        <offset.disable-normalization value="true"/>
        <lefthand value="false"/>
    </processing>

    <junctions>
        <no-turnarounds value="true"/>
        <junctions.corner-detail value="5"/>
        <junctions.limit-turn-speed value="5.5"/>
        <rectangular-lane-cut value="false"/>
    </junctions>

    <pedestrian>
        <walkingareas value="false"/>
    </pedestrian>

    <netedit>
        <route-files value="D:\Learn\4-1\Project\Dev\Sumo\test_tls\routes.rou.xml"/>
    </netedit>

    <report>
        <aggregate-warnings value="5"/>
    </report>

</configuration>
-->

<additional xmlns:xsi="http://www.w3.org/2001/XMLSchema-instance" xsi:noNamespaceSchemaLocation="http://sumo.dlr.de/xsd/additional_file.xsd">
    <tlLogic id="gneJ1" type="static" programID="0" offset="0">
        <phase duration="42" state="GrrrGrrrrGrrrGGGGg"/>
        <phase duration="3" state="GrrrGrrrrGrrrGyyyy"/>
        <phase duration="42" state="GrrrGGGGgGrrrGrrrr"/>
        <phase duration="3" state="GrrrGyyyyGrrrGrrrr"/>
        <phase duration="30" state="GGGgGrrrrGrrrGrrrr"/>
        <phase duration="3" state="GyyyGrrrrGrrrGrrrr"/>
        <phase duration="30" state="GrrrGrrrrGGGgGrrrr"/>
        <phase duration="3" state="GrrrGrrrrGyyyGrrrr"/>
    </tlLogic>
</additional>
