<?xml version="1.0" encoding="UTF-8"?>

<!-- generated on 2022-02-18 05:06:57 by Eclipse SUMO netedit Version 1.10.0
<configuration xmlns:xsi="http://www.w3.org/2001/XMLSchema-instance" xsi:noNamespaceSchemaLocation="http://sumo.dlr.de/xsd/netconvertConfiguration.xsd">

    <input>
        <sumo-net-file value="D:\Learn\4-1\Project\Dev\GitHub\Simulation\Area\New\map.net.xml"/>
    </input>

    <output>
        <output-file value="D:\Learn\4-1\Project\Dev\GitHub\Simulation\Area\New\map.net.xml"/>
    </output>

    <processing>
        <geometry.min-radius.fix.railways value="false"/>
        <geometry.max-grade.fix value="false"/>
        <offset.disable-normalization value="true"/>
        <lefthand value="true"/>
    </processing>

    <junctions>
        <no-turnarounds value="true"/>
        <junctions.corner-detail value="5"/>
        <junctions.limit-turn-speed value="5.5"/>
        <rectangular-lane-cut value="false"/>
    </junctions>

    <pedestrian>
        <walkingareas value="false"/>
    </pedestrian>

    <netedit>
        <route-files value="D:\Learn\4-1\Project\Dev\GitHub\Simulation\Area\New\routes.rou.xml"/>
    </netedit>

    <report>
        <aggregate-warnings value="5"/>
    </report>

</configuration>
-->

<routes xmlns:xsi="http://www.w3.org/2001/XMLSchema-instance" xsi:noNamespaceSchemaLocation="http://sumo.dlr.de/xsd/routes_file.xsd">
    <flow id="flow_0" begin="0.00" from="gneE9" to="gneE10" end="3600.00" vehsPerHour="100.00"/>
    <flow id="flow_1" begin="0.00" from="gneE9" to="gneE14" via="gneE12" end="3600.00" vehsPerHour="100.00"/>
    <flow id="flow_2" begin="0.00" from="gneE9" to="gneE15" via="gneE12 gneE13" end="3600.00" vehsPerHour="100.00"/>
    <flow id="flow_3" begin="0.00" from="gneE9" to="gneE17" via="gneE12 gneE13" end="3600.00" vehsPerHour="200.00"/>
    <flow id="flow_4" begin="0.00" from="gneE9" to="gneE16" via="gneE12 gneE13" end="3600.00" vehsPerHour="101.00"/>
    <flow id="flow_5" begin="0.00" from="gneE9" to="gneE11" end="3600.00" vehsPerHour="101.00"/>

    <flow id="flow_6" begin="0.00" from="-gneE10" to="gneE14" via="gneE12" end="3600.00" vehsPerHour="102.00"/>
    <flow id="flow_7" begin="0.00" from="-gneE10" to="gneE15" via="gneE12 gneE13" end="3600.00" vehsPerHour="102.00"/>
    <flow id="flow_8" begin="0.00" from="-gneE10" to="gneE17" via="gneE12 gneE13" end="3600.00" vehsPerHour="202.00"/>
    <flow id="flow_9" begin="0.00" from="-gneE10" to="gneE16" via="gneE12 gneE13" end="3600.00" vehsPerHour="102.00"/>

    <flow id="flow_10" begin="0.00" from="-gneE11" to="-gneE9" end="3600.00" vehsPerHour="103.00"/>
    <flow id="flow_11" begin="0.00" from="-gneE11" to="gneE10" end="3600.00" vehsPerHour="203.00"/>
    <flow id="flow_12" begin="0.00" from="-gneE11" to="gneE14" via="gneE12" end="3600.00" vehsPerHour="53.00"/>
    <flow id="flow_13" begin="0.00" from="-gneE11" to="gneE15" via="gneE12 gneE13" end="3600.00" vehsPerHour="53.00"/>
    <flow id="flow_14" begin="0.00" from="-gneE11" to="gneE17" via="gneE12 gneE13" end="3600.00" vehsPerHour="53.00"/>
    <flow id="flow_15" begin="0.00" from="-gneE11" to="gneE16" via="gneE12 gneE13" end="3600.00" vehsPerHour="53.00"/>

    <flow id="flow_16" begin="0.00" from="-gneE14" to="gneE11" via="-gneE12" end="3600.00" vehsPerHour="54.00"/>
    <flow id="flow_17" begin="0.00" from="-gneE14" to="-gneE9" via="-gneE12" end="3600.00" vehsPerHour="54.00"/>
    <flow id="flow_18" begin="0.00" from="-gneE14" to="gneE10" via="-gneE12" end="3600.00" vehsPerHour="54.00"/>
    <flow id="flow_19" begin="0.00" from="-gneE14" to="gneE15" via="gneE13" end="3600.00" vehsPerHour="54.00"/>
    <flow id="flow_20" begin="0.00" from="-gneE14" to="gneE17" via="gneE13" end="3600.00" vehsPerHour="54.00"/>
    <flow id="flow_21" begin="0.00" from="-gneE14" to="gneE16" via="gneE13" end="3600.00" vehsPerHour="54.00"/>

    <flow id="flow_22" begin="0.00" from="-gneE15" to="gneE17" end="3600.00" vehsPerHour="55.00"/>
    <flow id="flow_23" begin="0.00" from="-gneE15" to="gneE16" end="3600.00" vehsPerHour="55.00"/>
    <flow id="flow_24" begin="0.00" from="-gneE15" to="gneE14" via="-gneE13" end="3600.00" vehsPerHour="55.00"/>
    <flow id="flow_25" begin="0.00" from="-gneE15" to="gneE10" via="-gneE13 -gneE12" end="3600.00" vehsPerHour="55.00"/>
    <flow id="flow_26" begin="0.00" from="-gneE15" to="-gneE9" via="-gneE13 -gneE12" end="3600.00" vehsPerHour="55.00"/>
    <flow id="flow_27" begin="0.00" from="-gneE15" to="gneE11" via="-gneE13 -gneE12" end="3600.00" vehsPerHour="55.00"/>
    <flow id="flow_28" begin="0.00" from="-gneE15" to="gneE16" end="3600.00" vehsPerHour="55.00"/>

    <flow id="flow_29" begin="0.00" from="-gneE17" to="gneE15" end="3600.00" vehsPerHour="106.00"/>
    <flow id="flow_30" begin="0.00" from="-gneE17" to="gneE16" end="3600.00" vehsPerHour="106.00"/>
    <flow id="flow_31" begin="0.00" from="-gneE17" to="gneE14" via="-gneE13" end="3600.00" vehsPerHour="106.00"/>
    <flow id="flow_32" begin="0.00" from="-gneE17" to="gneE10" via="-gneE13 -gneE12" end="3600.00" vehsPerHour="106.00"/>
    <flow id="flow_33" begin="0.00" from="-gneE17" to="-gneE9" via="-gneE13 -gneE12" end="3600.00" vehsPerHour="106.00"/>
    <flow id="flow_34" begin="0.00" from="-gneE17" to="gneE11" via="-gneE13 -gneE12" end="3600.00" vehsPerHour="106.00"/>

    <flow id="flow_35" begin="0.00" from="-gneE16" to="gneE15" end="3600.00" vehsPerHour="106.00"/>
    <flow id="flow_36" begin="0.00" from="-gneE16" to="gneE17" end="3600.00" vehsPerHour="106.00"/>
    <flow id="flow_37" begin="0.00" from="-gneE16" to="gneE14" via="-gneE13" end="3600.00" vehsPerHour="106.00"/>
    <flow id="flow_38" begin="0.00" from="-gneE16" to="gneE10" via="-gneE13 -gneE12" end="3600.00" vehsPerHour="106.00"/>
    <flow id="flow_39" begin="0.00" from="-gneE16" to="-gneE9" via="-gneE13 -gneE12" end="3600.00" vehsPerHour="106.00"/>
    <flow id="flow_40" begin="0.00" from="-gneE16" to="gneE11" via="-gneE13 -gneE12" end="3600.00" vehsPerHour="106.00"/>
    
</routes>
