<configuration>
<input>
<net-file value="map.net.xml"/>
<route-files value="routes.rou.xml"/>

</input>
<time>
<begin value="0"/>
<end value="3600"/>
</time>
</configuration>